Version 4
SHEET 1 1372 680
WIRE 496 64 448 64
WIRE 400 112 368 112
WIRE 496 112 496 64
WIRE 496 112 480 112
WIRE 576 112 496 112
WIRE 720 112 608 112
WIRE 608 160 608 112
WIRE 720 160 720 112
WIRE 512 240 512 224
WIRE 608 240 608 224
WIRE 608 240 512 240
WIRE 512 256 512 240
WIRE 272 272 240 272
WIRE 368 272 368 112
WIRE 368 272 352 272
WIRE 432 272 368 272
WIRE 480 272 432 272
WIRE 576 288 576 112
WIRE 576 288 544 288
WIRE 672 288 576 288
WIRE 480 304 416 304
WIRE 240 320 240 272
WIRE 512 352 512 320
WIRE 576 352 512 352
WIRE 576 368 576 352
WIRE 416 384 416 304
WIRE 512 384 512 352
WIRE 240 432 240 400
WIRE 576 464 576 432
FLAG 832 272 0
FLAG 960 272 0
FLAG 832 192 +Vcc
FLAG 960 192 -Vcc
FLAG 720 160 0
FLAG 576 464 0
FLAG 672 288 Vout
FLAG 432 272 Vg
FLAG 512 384 -Vcc
FLAG 512 224 +Vcc
FLAG 416 384 0
FLAG 240 432 0
SYMBOL voltage 832 176 R0
SYMATTR InstName +Vcc
SYMATTR Value 10
SYMBOL voltage 960 176 R0
SYMATTR InstName -Vcc
SYMATTR Value -10
SYMBOL cap 592 160 R0
SYMATTR InstName C1
SYMATTR Value 100nF
SYMBOL cap 560 368 R0
SYMATTR InstName C2
SYMATTR Value 100nF
SYMBOL potentiometer 384 128 R270
WINDOW 0 49 19 VRight 2
WINDOW 3 83 42 VRight 1
SYMATTR InstName Rf
SYMBOL res 368 256 R90
WINDOW 0 0 56 VBottom 2
WINDOW 3 32 56 VTop 1
SYMATTR InstName Ri
SYMATTR Value 1K
SYMBOL Opamps\\UniversalOpamp2 512 288 R0
SYMATTR InstName U2
SYMBOL voltage 240 304 R0
WINDOW 123 0 0 Left 0
WINDOW 39 0 0 Left 0
SYMATTR InstName V1
SYMATTR Value 2.5V
TEXT 808 384 Left 2 !.tran 20
TEXT 808 416 Left 2 !.include potentiometer.sub
TEXT 464 256 Left 1 ;1
TEXT 464 296 Left 1 ;2
TEXT 520 328 Left 1 ;3
TEXT 552 304 Left 1 ;4
TEXT 488 232 Left 1 ;5
