Version 4
SHEET 1 1372 680
WIRE 1136 48 1008 48
WIRE 496 64 448 64
WIRE 848 96 800 96
WIRE 1008 96 1008 48
WIRE 1008 96 928 96
WIRE 288 112 256 112
WIRE 384 112 368 112
WIRE 400 112 384 112
WIRE 496 112 496 64
WIRE 496 112 480 112
WIRE 576 112 496 112
WIRE 720 112 608 112
WIRE 1024 112 976 112
WIRE 1136 112 1136 48
WIRE 1136 112 1104 112
WIRE 1184 112 1136 112
WIRE 1200 112 1184 112
WIRE 800 144 800 96
WIRE 976 144 976 112
WIRE 256 160 256 112
WIRE 608 160 608 112
WIRE 720 160 720 112
WIRE 512 240 512 224
WIRE 608 240 608 224
WIRE 608 240 512 240
WIRE 512 256 512 240
WIRE 384 272 384 112
WIRE 432 272 384 272
WIRE 480 272 432 272
WIRE 800 272 800 224
WIRE 976 272 976 224
WIRE 576 288 576 112
WIRE 576 288 544 288
WIRE 672 288 576 288
WIRE 480 304 384 304
WIRE 512 352 512 320
WIRE 576 352 512 352
WIRE 576 368 576 352
WIRE 512 384 512 352
WIRE 576 464 576 432
FLAG 832 464 0
FLAG 960 464 0
FLAG 832 384 +Vcc
FLAG 960 384 -Vcc
FLAG 720 160 0
FLAG 576 464 0
FLAG 672 288 Vout
FLAG 256 160 0
FLAG 432 272 Vg
FLAG 512 384 -Vcc
FLAG 512 224 +Vcc
FLAG 800 272 0
FLAG 976 272 0
FLAG 1184 112 Vin
FLAG 384 304 Vin
IOPIN 384 304 In
SYMBOL voltage 832 368 R0
SYMATTR InstName +Vcc
SYMATTR Value 10
SYMBOL voltage 960 368 R0
SYMATTR InstName -Vcc
SYMATTR Value -10
SYMBOL cap 592 160 R0
SYMATTR InstName C1
SYMATTR Value 100nF
SYMBOL cap 560 368 R0
SYMATTR InstName C2
SYMATTR Value 100nF
SYMBOL potentiometer 384 128 R270
WINDOW 0 49 19 VRight 2
WINDOW 3 83 42 VRight 1
SYMATTR InstName Rf
SYMATTR Value Rtot=10K wiper=.9
SYMBOL res 384 96 R90
WINDOW 0 0 56 VBottom 2
WINDOW 3 32 56 VTop 1
SYMATTR InstName Ri
SYMATTR Value 1K
SYMBOL UniversalOpamp2 512 288 R0
SYMATTR InstName U2
SYMBOL voltage 800 128 R0
WINDOW 123 24 118 Left 2
WINDOW 39 0 0 Left 0
SYMATTR InstName V1
SYMATTR Value SINE(0 1 1000)
SYMBOL voltage 976 128 R0
WINDOW 123 0 0 Left 0
WINDOW 39 0 0 Left 0
SYMATTR InstName V2
SYMATTR Value 1.0V
SYMBOL res 944 80 R90
WINDOW 0 0 56 VBottom 2
WINDOW 3 32 56 VTop 2
SYMATTR InstName R1
SYMATTR Value 1K
SYMBOL res 1120 96 R90
WINDOW 0 0 56 VBottom 2
WINDOW 3 32 56 VTop 2
SYMATTR InstName R2
SYMATTR Value 1K
TEXT 352 600 Left 2 !.tran 0.01
TEXT 352 632 Left 2 !.include potentiometer.sub
TEXT 464 256 Left 1 ;1
TEXT 464 296 Left 1 ;2
TEXT 520 328 Left 1 ;3
TEXT 552 304 Left 1 ;4
TEXT 488 232 Left 1 ;5
