Version 4
SHEET 1 1372 864
WIRE 64 96 32 96
WIRE 176 96 144 96
WIRE 400 160 384 160
WIRE 576 160 480 160
WIRE 272 224 240 224
WIRE 112 240 112 208
WIRE -112 256 -160 256
WIRE 32 256 32 96
WIRE 32 256 -32 256
WIRE 80 256 32 256
WIRE 512 256 512 224
WIRE 176 272 176 96
WIRE 176 272 144 272
WIRE 192 272 176 272
WIRE 272 272 272 224
WIRE 368 272 352 272
WIRE 384 272 384 160
WIRE 384 272 368 272
WIRE 480 272 384 272
WIRE 80 288 16 288
WIRE 576 288 576 160
WIRE 576 288 544 288
WIRE 672 288 576 288
WIRE 480 304 416 304
WIRE 112 320 112 304
WIRE 16 336 16 288
WIRE 512 336 512 320
WIRE 128 400 -48 400
WIRE 368 512 368 272
WIRE 240 464 208 464
WIRE -144 480 -144 448
WIRE 64 480 64 464
WIRE -48 496 -48 400
WIRE 32 496 -48 496
WIRE 416 496 416 304
WIRE 128 512 128 400
WIRE 128 512 96 512
WIRE 160 512 128 512
WIRE 240 512 240 464
WIRE 368 512 320 512
WIRE 32 528 -96 528
WIRE 64 560 64 544
WIRE -144 640 -144 560
FLAG 608 496 0
FLAG 736 496 0
FLAG 608 416 +Vcc
FLAG 736 416 Vxd
FLAG 672 288 Vout
IOPIN 672 288 Out
FLAG 512 336 -Vcc
FLAG 512 224 +Vcc
FLAG 112 320 -Vcc
FLAG 112 208 +Vcc
FLAG 16 336 0
FLAG -160 256 Vxd
IOPIN -160 256 In
FLAG -144 448 +Vcc
FLAG -144 640 0
FLAG 64 464 +Vcc
FLAG 64 560 -Vcc
FLAG 416 496 0
SYMBOL voltage 608 400 R0
SYMATTR InstName +Vcc
SYMATTR Value 10V
SYMBOL voltage 736 400 R0
SYMATTR InstName Vxd
SYMATTR Value 1.8V
SYMBOL res 368 256 R90
WINDOW 0 0 56 VBottom 2
WINDOW 3 32 56 VTop 2
SYMATTR InstName Ri
SYMATTR Value 10K
SYMBOL Res 496 144 R90
WINDOW 0 0 56 VBottom 2
WINDOW 3 32 56 VTop 2
SYMATTR InstName Rf
SYMATTR Value 100K
SYMBOL Res -16 240 R90
WINDOW 0 0 56 VBottom 2
WINDOW 3 32 56 VTop 2
SYMATTR InstName R1
SYMATTR Value 10K
SYMBOL Res 160 80 R90
WINDOW 0 0 56 VBottom 2
WINDOW 3 32 56 VTop 2
SYMATTR InstName R2
SYMATTR Value 10K
SYMBOL OpAmps/UniversalOpAmp 112 272 R0
SYMATTR InstName U2
SYMBOL OpAmps/UniversalOpAmp 512 288 R0
SYMATTR InstName U1
SYMBOL potentiometer -160 464 R0
WINDOW 0 36 32 Left 2
WINDOW 3 17 152 Left 2
SYMATTR InstName R
SYMATTR Value Rtot=10K wiper=1
SYMBOL OpAmps/UniversalOpAmp 64 512 R0
SYMATTR InstName U3
SYMBOL potentiometer 176 288 R270
WINDOW 3 79 45 VRight 0
SYMATTR InstName U5
SYMBOL res 336 496 R90
WINDOW 0 0 56 VBottom 2
WINDOW 3 32 56 VTop 2
SYMATTR InstName Rb
SYMATTR Value 22K
SYMBOL potentiometer 144 528 R270
WINDOW 0 68 1 VRight 2
WINDOW 3 79 45 VRight 0
SYMATTR InstName Rbpot
TEXT 584 608 Left 2 !.dc Vxd 1.2 1.8 0.012
TEXT 584 640 Left 2 !.include potentiometer.sub
TEXT 456 264 Left 1 ;2
TEXT 456 304 Left 1 ;3
TEXT 520 328 Left 1 ;11
TEXT 552 288 Left 1 ;1
TEXT 512 240 Left 1 ;4
TEXT 64 240 Left 1 ;6
TEXT 64 280 Left 1 ;5
TEXT 112 304 Left 1 ;11
TEXT 112 224 Left 1 ;4
TEXT 16 480 Left 1 ;9
TEXT 16 520 Left 1 ;10
TEXT 64 544 Left 1 ;11
TEXT 64 480 Left 1 ;4
TEXT 160 280 Left 1 ;7
TEXT 104 520 Left 1 ;8
