Version 4
SHEET 1 1372 680
WIRE 512 32 512 -48
WIRE 720 112 608 112
WIRE 608 160 608 112
WIRE 720 160 720 112
WIRE 512 240 512 224
WIRE 608 240 608 224
WIRE 608 240 512 240
WIRE 512 256 512 240
WIRE 480 272 224 272
WIRE 672 288 544 288
WIRE 480 304 384 304
WIRE 608 320 512 320
WIRE 608 336 608 320
WIRE 512 352 512 320
WIRE 384 416 384 304
WIRE 384 416 272 416
WIRE 608 432 608 400
WIRE 864 432 736 432
WIRE 736 480 736 432
WIRE 736 528 736 480
FLAG 512 224 +Vcc
FLAG 512 352 -Vcc
FLAG 640 0 0
FLAG 768 0 0
FLAG 176 224 +Vcc
FLAG 176 304 0
FLAG 272 416 AO0
FLAG 672 288 AI0+
IOPIN 672 288 In
FLAG 736 528 0
FLAG 864 432 AI0-
IOPIN 864 432 In
FLAG 736 480 AGND
IOPIN 736 480 In
FLAG 512 32 0
FLAG 640 -80 +Vcc
FLAG 768 -80 -Vcc
FLAG 512 -128 AO0
FLAG 720 160 0
FLAG 608 432 0
SYMBOL voltage 640 -96 R0
SYMATTR InstName +Vcc
SYMATTR Value 10
SYMBOL voltage 768 -96 R0
SYMATTR InstName -Vcc
SYMATTR Value -10
SYMBOL voltage 512 -144 R0
WINDOW 123 0 0 Left 0
WINDOW 39 0 0 Left 0
SYMATTR InstName AO0
SYMATTR Value ""
SYMBOL cap 592 160 R0
SYMATTR InstName C1
SYMATTR Value 100nF
SYMBOL cap 592 336 R0
SYMATTR InstName C2
SYMATTR Value 100nF
SYMBOL potentiometer 160 208 R0
SYMATTR InstName U2
SYMBOL Opamps\\UniversalOpamp2 512 288 R0
SYMATTR InstName U1
TEXT 408 256 Left 2 ;Vref
TEXT 392 464 Left 2 !.dc AO0 -10 10 0.1
TEXT 392 520 Left 2 !.include potentiometer.sub
