Version 4
SHEET 1 1372 680
WIRE 720 112 608 112
WIRE 944 128 944 48
WIRE 608 160 608 112
WIRE 720 160 720 112
WIRE 512 240 512 224
WIRE 608 240 608 224
WIRE 608 240 512 240
WIRE 512 256 512 240
WIRE 368 272 224 272
WIRE 480 272 368 272
WIRE 672 288 544 288
WIRE 480 304 384 304
WIRE 608 320 512 320
WIRE 608 336 608 320
WIRE 512 352 512 320
WIRE 1072 352 944 352
WIRE 944 400 944 352
WIRE 384 416 384 304
WIRE 384 416 304 416
WIRE 608 432 608 400
WIRE 944 448 944 400
FLAG 512 224 +Vcc
FLAG 512 352 -Vcc
FLAG 1072 96 0
FLAG 1200 96 0
FLAG 176 224 +Vcc
FLAG 176 304 0
FLAG 304 416 Vin
FLAG 944 448 0
FLAG 1072 352 AI0-
IOPIN 1072 352 In
FLAG 944 400 AGND
IOPIN 944 400 In
FLAG 944 128 0
FLAG 1072 16 +Vcc
FLAG 1200 16 -Vcc
FLAG 944 -32 Vin
FLAG 720 160 0
FLAG 608 432 0
FLAG 672 288 Vout
FLAG 368 272 Vref
SYMBOL voltage 1072 0 R0
SYMATTR InstName +Vcc
SYMATTR Value 10
SYMBOL voltage 1200 0 R0
SYMATTR InstName -Vcc
SYMATTR Value -10
SYMBOL voltage 944 -48 R0
WINDOW 123 0 0 Left 0
WINDOW 39 0 0 Left 0
SYMATTR InstName Vin
SYMATTR Value ""
SYMBOL cap 592 160 R0
SYMATTR InstName C1
SYMATTR Value 100nF
SYMBOL cap 592 336 R0
SYMATTR InstName C2
SYMATTR Value 100nF
SYMBOL potentiometer 160 208 R0
SYMATTR InstName U2
SYMATTR Value Rtot=10K wiper=.3
SYMBOL Opamps\\UniversalOpamp2 512 288 R0
SYMATTR InstName U1
TEXT 904 512 Left 2 !.dc Vin -10 10 0.1
TEXT 904 544 Left 2 !.include potentiometer.sub
