Version 4
SHEET 1 1372 712
WIRE 128 128 16 128
WIRE 16 176 16 128
WIRE 128 176 128 128
WIRE -80 256 -80 240
WIRE 16 256 16 240
WIRE 16 256 -80 256
WIRE -80 272 -80 256
WIRE -112 288 -368 288
WIRE 48 304 -48 304
WIRE 80 304 48 304
WIRE -112 320 -208 320
WIRE -48 336 -80 336
WIRE -80 368 -80 336
WIRE 48 416 48 304
WIRE -48 432 -48 400
WIRE 864 432 736 432
WIRE 736 480 736 432
WIRE -208 496 -208 320
WIRE 48 496 -208 496
WIRE -208 528 -208 496
WIRE 736 528 736 480
FLAG -80 240 +Vcc
FLAG -80 368 -Vcc
FLAG 656 176 0
FLAG 784 176 0
FLAG -416 240 +Vcc
FLAG -416 320 0
FLAG -208 608 Vin
FLAG 80 304 Vout
FLAG 736 528 0
FLAG 864 432 AI0-
IOPIN 864 432 In
FLAG 736 480 AGND
IOPIN 736 480 In
FLAG 656 96 +Vcc
FLAG 784 96 -Vcc
FLAG 128 176 0
FLAG -48 432 0
FLAG 512 176 0
FLAG 512 96 Vin
SYMBOL voltage 656 80 R0
SYMATTR InstName +Vcc
SYMATTR Value 10
SYMBOL voltage 784 80 R0
SYMATTR InstName -Vcc
SYMATTR Value -10
SYMBOL cap 0 176 R0
SYMATTR InstName C1
SYMATTR Value 100nF
SYMBOL cap -64 336 R0
SYMATTR InstName C2
SYMATTR Value 100nF
SYMBOL potentiometer -432 224 R0
SYMATTR InstName U2
SYMATTR Value Rtot=10K wiper=.375
SYMBOL Res -224 512 R0
SYMATTR InstName R1
SYMATTR Value 10K
SYMBOL Res 32 400 R0
SYMATTR InstName R2
SYMATTR Value 150K
SYMBOL Opamps\\UniversalOpamp2 -80 304 R0
SYMATTR InstName U1
SYMBOL voltage 512 80 R0
SYMATTR InstName Vin
SYMATTR Value ""
TEXT -232 272 Left 2 ;Vref
TEXT -208 -24 Left 2 !.include potentiometer.sub
TEXT -208 -64 Left 2 !.step param Vin list -10 -9 -8 -7 -6 -5 -4 -3 -2 -1 0 1 2 3 4 5 6 7 8 9 10 9 8 7 6 5 4 3 2 1 0 -1 -2 -3 -4 -5 -6 -7 -8 -9 -10
TEXT -446 694 Left 2 !.dc Vin list -10 -9 -8 -7 -6 -5 -4 -3 -2 -1 0 1 2 3 4 5 6 7 8 9 10 9 8 7 6 5 4 3 2 1 0 -1 -2 -3 -4 -5 -6 -7 -8 -9 -10
