Version 4
SHEET 1 880 680
WIRE 144 112 48 112
WIRE 240 160 192 160
WIRE 48 208 48 192
WIRE 96 208 48 208
WIRE 144 208 144 192
WIRE 144 208 96 208
WIRE 96 240 96 208
FLAG 96 240 0
FLAG 240 160 Vout
IOPIN 240 160 In
SYMBOL potentiometer 128 96 R0
SYMATTR InstName R1
SYMATTR Value Rtot=10K wiper=.2
SYMBOL voltage 48 96 R0
WINDOW 123 0 0 Left 2
WINDOW 39 0 0 Left 2
WINDOW 0 -67 34 Left 2
WINDOW 3 -77 89 Left 2
SYMATTR InstName V1
SYMATTR Value 10V
TEXT -152 248 Left 2 !.tran 1ms
TEXT -152 288 Left 2 !.include potentiometer.sub
