Version 4
SHEET 1 1372 848
WIRE 128 128 128 112
WIRE 96 144 -16 144
WIRE 224 160 160 160
WIRE 320 160 224 160
WIRE 448 160 400 160
WIRE 464 160 448 160
WIRE 608 160 544 160
WIRE 96 176 32 176
WIRE 224 176 224 160
WIRE 128 224 128 192
WIRE 544 256 544 224
WIRE 32 272 32 176
WIRE 224 272 224 256
WIRE 224 272 32 272
WIRE 448 272 448 160
WIRE 512 272 448 272
WIRE 224 288 224 272
WIRE 224 288 176 288
WIRE 608 288 608 160
WIRE 608 288 576 288
WIRE 704 288 608 288
WIRE 512 304 448 304
WIRE 176 320 176 288
WIRE 544 336 544 320
WIRE 224 384 224 368
WIRE 224 384 32 384
WIRE 752 384 608 384
WIRE 224 400 224 384
WIRE 128 448 128 432
WIRE 688 448 688 432
WIRE 864 448 864 416
WIRE 32 464 32 384
WIRE 96 464 32 464
WIRE 752 464 752 384
WIRE 752 464 720 464
WIRE 224 480 160 480
WIRE 320 480 224 480
WIRE 448 480 448 304
WIRE 448 480 400 480
WIRE 496 480 448 480
WIRE 608 480 608 384
WIRE 608 480 576 480
WIRE 656 480 608 480
WIRE 96 496 -16 496
WIRE 816 496 720 496
WIRE 128 528 128 512
WIRE 688 528 688 512
WIRE 864 560 864 528
FLAG 400 704 0
FLAG 400 624 +V
FLAG 704 288 Vout
IOPIN 704 288 Out
FLAG 544 336 -V
FLAG 544 224 +V
FLAG 128 112 -V
FLAG 128 224 +V
FLAG 128 432 +V
FLAG 128 528 -V
FLAG 528 704 0
FLAG 528 624 -V
FLAG -16 144 V2
IOPIN -16 144 In
FLAG -16 496 V1
IOPIN -16 496 In
FLAG 144 704 0
FLAG 288 704 0
FLAG 144 624 V1
FLAG 288 624 V2
FLAG 864 560 0
FLAG 864 416 +Vcc
FLAG 688 432 +Vcc
FLAG 688 528 -Vcc
SYMBOL voltage 400 608 R0
SYMATTR InstName +Vcc
SYMATTR Value 13V
SYMBOL res 416 144 R90
WINDOW 0 0 56 VBottom 2
WINDOW 3 32 56 VTop 2
SYMATTR InstName R1
SYMATTR Value 10K
SYMBOL Res 560 144 R90
WINDOW 0 0 56 VBottom 2
WINDOW 3 32 56 VTop 2
SYMATTR InstName R2
SYMATTR Value 100K
SYMBOL OpAmps/UniversalOpAmp 128 160 M180
SYMATTR InstName U2
SYMBOL OpAmps/UniversalOpAmp 544 288 R0
SYMATTR InstName U1
SYMBOL OpAmps/UniversalOpAmp 128 480 R0
SYMATTR InstName U3
SYMBOL voltage 528 608 R0
SYMATTR InstName -Vcc
SYMATTR Value -13V
SYMBOL Res 208 160 R0
SYMATTR InstName R5
SYMATTR Value 330K
SYMBOL potentiometer 240 384 R180
WINDOW 0 36 32 Left 2
WINDOW 3 -165 61 Left 1
SYMATTR InstName Rg
SYMATTR Value Rtot=10K wiper=.3305
SYMBOL Res 416 464 R90
WINDOW 0 0 56 VBottom 2
WINDOW 3 32 56 VTop 2
SYMATTR InstName R3
SYMATTR Value 10K
SYMBOL Res 592 464 R90
WINDOW 0 0 56 VBottom 2
WINDOW 3 32 56 VTop 2
SYMATTR InstName R4
SYMATTR Value 100K
SYMBOL Res 208 384 R0
SYMATTR InstName R6
SYMATTR Value 330K
SYMBOL Voltage 144 608 R0
SYMATTR InstName V1
SYMATTR Value 0.005V
SYMBOL Voltage 288 608 R0
SYMATTR InstName V2
SYMATTR Value 0V
SYMBOL OpAmps/UniversalOpAmp 688 480 M0
SYMATTR InstName U4
SYMBOL potentiometer 880 432 M0
SYMATTR InstName U5
TEXT 984 -72 Left 2 !.tran 20
TEXT 984 -40 Left 2 !.include potentiometer.sub
TEXT 488 264 Left 1 ;2
TEXT 488 304 Left 1 ;3
TEXT 552 328 Left 1 ;11
TEXT 584 288 Left 1 ;1
TEXT 544 240 Left 1 ;4
TEXT 80 192 Left 1 ;6
TEXT 80 152 Left 1 ;5
TEXT 128 128 Left 1 ;11
TEXT 128 208 Left 1 ;4
TEXT 64 456 Left 1 ;9
TEXT 64 496 Left 1 ;10
TEXT 128 512 Left 1 ;11
TEXT 128 448 Left 1 ;4
TEXT 176 168 Left 1 ;7
TEXT 168 488 Left 1 ;8
TEXT 760 496 Left 2 ;12
TEXT 752 448 Left 2 ;13
TEXT 640 416 Left 2 ;4
TEXT 648 520 Left 2 ;11
TEXT 576 480 Left 2 ;14
